

;;____________________________________________________________________________________________________
[SUBCATCHMENTS]
;; No Data

;;____________________________________________________________________________________________________
[SUBAREAS]
;; No Data

;;____________________________________________________________________________________________________
[INFILTRATION]
;; No Data

;;____________________________________________________________________________________________________
[CONDUITS]
;; No Data