pcf
* control data
restart estimation
      7   2191      7      0      1
     1     1   single   point   1   0   0
5.0   2.0    0.3    0.03    10  999
5.0   5.0   1.0e-3
0.1   aui
30   .005  4   4  .005   4
1    1    1
* parameter groups
gp1          relative      1.00000E-02    0.0000      switch       1.5000      parabolic
gp2          relative      1.00000E-02    0.0000      switch       1.5000      parabolic
gp3          relative      1.00000E-02    0.0000      switch       1.5000      parabolic
gp4          relative      1.00000E-02    0.0000      switch       1.5000      parabolic
gp5          relative      1.00000E-02    0.0000      switch       1.5000      parabolic
gp6          relative      1.00000E-02    0.0000      switch       1.5000      parabolic
gp7          relative      1.00000E-02    0.0000      switch       1.5000      parabolic
* parameter data
k            none   relative     0.93000       0.80000        1.0000      gp1             1.0000        0.0000        1
um           none   relative      20.000        10.000        50.000      gp2             1.0000        0.0000        1
sm           none   relative      30.000        1.0000        50.000      gp3             1.0000        0.0000        1
ki           none   relative     0.50000       0.10000       0.60000      gp4             1.0000        0.0000        1
ci           none   relative     0.76000       0.10000       0.90000      gp5             1.0000        0.0000        1
cg           none   relative     0.98000       0.95000       0.99800      gp6             1.0000        0.0000        1
cr           none   relative     0.21000       0.10000       0.90000      gp7             1.0000        0.0000        1
* observation groups
i_mod_est
* observation data
i_mod_est_1           0.5200000         1.00000      i_mod_est
i_mod_est_2           0.4300000         1.00000      i_mod_est
i_mod_est_3           0.4100000         1.00000      i_mod_est
i_mod_est_4           0.4400000         1.00000      i_mod_est
i_mod_est_5           0.4800000         1.00000      i_mod_est
i_mod_est_6           0.4200000         1.00000      i_mod_est
i_mod_est_7            1.150000         1.00000      i_mod_est
i_mod_est_8            2.400000         1.00000      i_mod_est
i_mod_est_9            1.340000         1.00000      i_mod_est
i_mod_est_10           1.250000         1.00000      i_mod_est
i_mod_est_11           2.200000         1.00000      i_mod_est
i_mod_est_12           2.600000         1.00000      i_mod_est
i_mod_est_13           2.270000         1.00000      i_mod_est
i_mod_est_14           1.840000         1.00000      i_mod_est
i_mod_est_15           2.050000         1.00000      i_mod_est
i_mod_est_16           1.250000         1.00000      i_mod_est
i_mod_est_17           1.250000         1.00000      i_mod_est
i_mod_est_18           5.620000         1.00000      i_mod_est
i_mod_est_19           28.50000         1.00000      i_mod_est
i_mod_est_20           16.80000         1.00000      i_mod_est
i_mod_est_21           8.330000         1.00000      i_mod_est
i_mod_est_22           6.940000         1.00000      i_mod_est
i_mod_est_23           5.570000         1.00000      i_mod_est
i_mod_est_24           4.730000         1.00000      i_mod_est
i_mod_est_25           3.920000         1.00000      i_mod_est
i_mod_est_26           3.610000         1.00000      i_mod_est
i_mod_est_27           2.910000         1.00000      i_mod_est
i_mod_est_28           2.720000         1.00000      i_mod_est
i_mod_est_29           2.240000         1.00000      i_mod_est
i_mod_est_30           2.030000         1.00000      i_mod_est
i_mod_est_31           2.070000         1.00000      i_mod_est
i_mod_est_32           1.550000         1.00000      i_mod_est
i_mod_est_33           1.390000         1.00000      i_mod_est
i_mod_est_34           1.470000         1.00000      i_mod_est
i_mod_est_35           1.300000         1.00000      i_mod_est
i_mod_est_36           1.370000         1.00000      i_mod_est
i_mod_est_37           1.290000         1.00000      i_mod_est
i_mod_est_38           1.550000         1.00000      i_mod_est
i_mod_est_39           1.920000         1.00000      i_mod_est
i_mod_est_40           2.240000         1.00000      i_mod_est
i_mod_est_41           2.090000         1.00000      i_mod_est
i_mod_est_42           2.120000         1.00000      i_mod_est
i_mod_est_43           1.480000         1.00000      i_mod_est
i_mod_est_44           1.890000         1.00000      i_mod_est
i_mod_est_45           1.430000         1.00000      i_mod_est
i_mod_est_46           4.760000         1.00000      i_mod_est
i_mod_est_47           54.40000         1.00000      i_mod_est
i_mod_est_48           47.90000         1.00000      i_mod_est
i_mod_est_49           35.10000         1.00000      i_mod_est
i_mod_est_50           21.80000         1.00000      i_mod_est
i_mod_est_51           14.30000         1.00000      i_mod_est
i_mod_est_52           11.50000         1.00000      i_mod_est
i_mod_est_53           10.20000         1.00000      i_mod_est
i_mod_est_54           9.010000         1.00000      i_mod_est
i_mod_est_55           10.40000         1.00000      i_mod_est
i_mod_est_56           29.00000         1.00000      i_mod_est
i_mod_est_57           22.30000         1.00000      i_mod_est
i_mod_est_58           15.70000         1.00000      i_mod_est
i_mod_est_59           11.80000         1.00000      i_mod_est
i_mod_est_60           9.440000         1.00000      i_mod_est
i_mod_est_61           7.680000         1.00000      i_mod_est
i_mod_est_62           15.80000         1.00000      i_mod_est
i_mod_est_63           29.30000         1.00000      i_mod_est
i_mod_est_64           22.70000         1.00000      i_mod_est
i_mod_est_65           15.80000         1.00000      i_mod_est
i_mod_est_66           11.60000         1.00000      i_mod_est
i_mod_est_67           8.740000         1.00000      i_mod_est
i_mod_est_68           7.200000         1.00000      i_mod_est
i_mod_est_69           6.320000         1.00000      i_mod_est
i_mod_est_70           5.570000         1.00000      i_mod_est
i_mod_est_71           4.830000         1.00000      i_mod_est
i_mod_est_72           4.770000         1.00000      i_mod_est
i_mod_est_73           6.320000         1.00000      i_mod_est
i_mod_est_74           4.960000         1.00000      i_mod_est
i_mod_est_75           4.450000         1.00000      i_mod_est
i_mod_est_76           4.260000         1.00000      i_mod_est
i_mod_est_77           20.20000         1.00000      i_mod_est
i_mod_est_78           32.70000         1.00000      i_mod_est
i_mod_est_79           30.70000         1.00000      i_mod_est
i_mod_est_80           20.60000         1.00000      i_mod_est
i_mod_est_81           15.00000         1.00000      i_mod_est
i_mod_est_82           12.50000         1.00000      i_mod_est
i_mod_est_83           12.20000         1.00000      i_mod_est
i_mod_est_84           31.50000         1.00000      i_mod_est
i_mod_est_85           27.70000         1.00000      i_mod_est
i_mod_est_86           19.00000         1.00000      i_mod_est
i_mod_est_87           13.90000         1.00000      i_mod_est
i_mod_est_88           11.00000         1.00000      i_mod_est
i_mod_est_89           9.020000         1.00000      i_mod_est
i_mod_est_90           7.120000         1.00000      i_mod_est
i_mod_est_91           7.090000         1.00000      i_mod_est
i_mod_est_92           22.50000         1.00000      i_mod_est
i_mod_est_93           82.30000         1.00000      i_mod_est
i_mod_est_94           59.70000         1.00000      i_mod_est
i_mod_est_95           36.30000         1.00000      i_mod_est
i_mod_est_96           23.00000         1.00000      i_mod_est
i_mod_est_97           16.40000         1.00000      i_mod_est
i_mod_est_98           12.90000         1.00000      i_mod_est
i_mod_est_99           10.10000         1.00000      i_mod_est
i_mod_est_100          8.470000         1.00000      i_mod_est
i_mod_est_101          15.60000         1.00000      i_mod_est
i_mod_est_102          118.0000         1.00000      i_mod_est
i_mod_est_103          132.0000         1.00000      i_mod_est
i_mod_est_104          58.50000         1.00000      i_mod_est
i_mod_est_105          33.80000         1.00000      i_mod_est
i_mod_est_106          21.00000         1.00000      i_mod_est
i_mod_est_107          15.30000         1.00000      i_mod_est
i_mod_est_108          11.60000         1.00000      i_mod_est
i_mod_est_109          9.550000         1.00000      i_mod_est
i_mod_est_110          8.040000         1.00000      i_mod_est
i_mod_est_111          6.570000         1.00000      i_mod_est
i_mod_est_112          11.40000         1.00000      i_mod_est
i_mod_est_113          12.10000         1.00000      i_mod_est
i_mod_est_114          20.90000         1.00000      i_mod_est
i_mod_est_115          15.30000         1.00000      i_mod_est
i_mod_est_116          11.60000         1.00000      i_mod_est
i_mod_est_117          9.590000         1.00000      i_mod_est
i_mod_est_118          114.0000         1.00000      i_mod_est
i_mod_est_119          113.0000         1.00000      i_mod_est
i_mod_est_120          48.10000         1.00000      i_mod_est
i_mod_est_121          34.80000         1.00000      i_mod_est
i_mod_est_122          34.30000         1.00000      i_mod_est
i_mod_est_123          28.10000         1.00000      i_mod_est
i_mod_est_124          20.60000         1.00000      i_mod_est
i_mod_est_125          15.00000         1.00000      i_mod_est
i_mod_est_126          11.00000         1.00000      i_mod_est
i_mod_est_127          8.470000         1.00000      i_mod_est
i_mod_est_128          6.950000         1.00000      i_mod_est
i_mod_est_129          7.540000         1.00000      i_mod_est
i_mod_est_130          15.20000         1.00000      i_mod_est
i_mod_est_131          48.50000         1.00000      i_mod_est
i_mod_est_132          40.90000         1.00000      i_mod_est
i_mod_est_133          29.80000         1.00000      i_mod_est
i_mod_est_134          20.20000         1.00000      i_mod_est
i_mod_est_135          13.90000         1.00000      i_mod_est
i_mod_est_136          11.60000         1.00000      i_mod_est
i_mod_est_137          8.740000         1.00000      i_mod_est
i_mod_est_138          6.730000         1.00000      i_mod_est
i_mod_est_139          5.670000         1.00000      i_mod_est
i_mod_est_140          5.080000         1.00000      i_mod_est
i_mod_est_141          6.060000         1.00000      i_mod_est
i_mod_est_142          92.20000         1.00000      i_mod_est
i_mod_est_143          123.0000         1.00000      i_mod_est
i_mod_est_144          43.90000         1.00000      i_mod_est
i_mod_est_145          22.60000         1.00000      i_mod_est
i_mod_est_146          15.00000         1.00000      i_mod_est
i_mod_est_147          72.80000         1.00000      i_mod_est
i_mod_est_148          183.0000         1.00000      i_mod_est
i_mod_est_149          72.50000         1.00000      i_mod_est
i_mod_est_150          34.50000         1.00000      i_mod_est
i_mod_est_151          19.40000         1.00000      i_mod_est
i_mod_est_152          13.90000         1.00000      i_mod_est
i_mod_est_153          10.40000         1.00000      i_mod_est
i_mod_est_154          7.200000         1.00000      i_mod_est
i_mod_est_155          27.40000         1.00000      i_mod_est
i_mod_est_156          39.20000         1.00000      i_mod_est
i_mod_est_157          20.60000         1.00000      i_mod_est
i_mod_est_158          16.10000         1.00000      i_mod_est
i_mod_est_159          11.00000         1.00000      i_mod_est
i_mod_est_160          23.50000         1.00000      i_mod_est
i_mod_est_161          20.80000         1.00000      i_mod_est
i_mod_est_162          21.30000         1.00000      i_mod_est
i_mod_est_163          17.40000         1.00000      i_mod_est
i_mod_est_164          12.50000         1.00000      i_mod_est
i_mod_est_165          9.550000         1.00000      i_mod_est
i_mod_est_166          8.200000         1.00000      i_mod_est
i_mod_est_167          48.90000         1.00000      i_mod_est
i_mod_est_168          294.0000         1.00000      i_mod_est
i_mod_est_169          133.0000         1.00000      i_mod_est
i_mod_est_170          54.50000         1.00000      i_mod_est
i_mod_est_171          27.20000         1.00000      i_mod_est
i_mod_est_172          18.90000         1.00000      i_mod_est
i_mod_est_173          24.40000         1.00000      i_mod_est
i_mod_est_174          19.40000         1.00000      i_mod_est
i_mod_est_175          13.00000         1.00000      i_mod_est
i_mod_est_176          9.000000         1.00000      i_mod_est
i_mod_est_177          7.930000         1.00000      i_mod_est
i_mod_est_178          16.20000         1.00000      i_mod_est
i_mod_est_179          24.70000         1.00000      i_mod_est
i_mod_est_180          20.20000         1.00000      i_mod_est
i_mod_est_181          14.60000         1.00000      i_mod_est
i_mod_est_182          11.90000         1.00000      i_mod_est
i_mod_est_183          15.40000         1.00000      i_mod_est
i_mod_est_184          98.30000         1.00000      i_mod_est
i_mod_est_185          164.0000         1.00000      i_mod_est
i_mod_est_186          60.50000         1.00000      i_mod_est
i_mod_est_187          37.40000         1.00000      i_mod_est
i_mod_est_188          29.30000         1.00000      i_mod_est
i_mod_est_189          14.90000         1.00000      i_mod_est
i_mod_est_190          13.10000         1.00000      i_mod_est
i_mod_est_191          14.90000         1.00000      i_mod_est
i_mod_est_192          9.400000         1.00000      i_mod_est
i_mod_est_193          7.060000         1.00000      i_mod_est
i_mod_est_194          5.470000         1.00000      i_mod_est
i_mod_est_195          4.640000         1.00000      i_mod_est
i_mod_est_196          5.510000         1.00000      i_mod_est
i_mod_est_197          5.340000         1.00000      i_mod_est
i_mod_est_198          3.830000         1.00000      i_mod_est
i_mod_est_199          3.270000         1.00000      i_mod_est
i_mod_est_200          3.090000         1.00000      i_mod_est
i_mod_est_201          2.630000         1.00000      i_mod_est
i_mod_est_202          2.240000         1.00000      i_mod_est
i_mod_est_203          1.890000         1.00000      i_mod_est
i_mod_est_204          1.920000         1.00000      i_mod_est
i_mod_est_205          1.900000         1.00000      i_mod_est
i_mod_est_206          24.00000         1.00000      i_mod_est
i_mod_est_207          31.00000         1.00000      i_mod_est
i_mod_est_208          10.10000         1.00000      i_mod_est
i_mod_est_209          5.950000         1.00000      i_mod_est
i_mod_est_210          4.400000         1.00000      i_mod_est
i_mod_est_211          3.950000         1.00000      i_mod_est
i_mod_est_212          4.420000         1.00000      i_mod_est
i_mod_est_213          3.630000         1.00000      i_mod_est
i_mod_est_214          3.220000         1.00000      i_mod_est
i_mod_est_215          2.940000         1.00000      i_mod_est
i_mod_est_216          2.640000         1.00000      i_mod_est
i_mod_est_217          2.660000         1.00000      i_mod_est
i_mod_est_218          2.880000         1.00000      i_mod_est
i_mod_est_219          4.180000         1.00000      i_mod_est
i_mod_est_220          5.640000         1.00000      i_mod_est
i_mod_est_221          4.170000         1.00000      i_mod_est
i_mod_est_222          4.420000         1.00000      i_mod_est
i_mod_est_223          3.160000         1.00000      i_mod_est
i_mod_est_224          2.570000         1.00000      i_mod_est
i_mod_est_225          2.180000         1.00000      i_mod_est
i_mod_est_226          1.920000         1.00000      i_mod_est
i_mod_est_227          2.080000         1.00000      i_mod_est
i_mod_est_228          2.480000         1.00000      i_mod_est
i_mod_est_229          2.270000         1.00000      i_mod_est
i_mod_est_230          1.850000         1.00000      i_mod_est
i_mod_est_231          1.680000         1.00000      i_mod_est
i_mod_est_232          1.470000         1.00000      i_mod_est
i_mod_est_233          1.470000         1.00000      i_mod_est
i_mod_est_234          1.620000         1.00000      i_mod_est
i_mod_est_235          1.450000         1.00000      i_mod_est
i_mod_est_236          1.540000         1.00000      i_mod_est
i_mod_est_237          1.780000         1.00000      i_mod_est
i_mod_est_238          1.360000         1.00000      i_mod_est
i_mod_est_239          1.730000         1.00000      i_mod_est
i_mod_est_240          5.100000         1.00000      i_mod_est
i_mod_est_241          24.40000         1.00000      i_mod_est
i_mod_est_242          33.80000         1.00000      i_mod_est
i_mod_est_243          27.30000         1.00000      i_mod_est
i_mod_est_244          82.90000         1.00000      i_mod_est
i_mod_est_245          141.0000         1.00000      i_mod_est
i_mod_est_246          61.70000         1.00000      i_mod_est
i_mod_est_247          27.10000         1.00000      i_mod_est
i_mod_est_248          38.30000         1.00000      i_mod_est
i_mod_est_249          38.60000         1.00000      i_mod_est
i_mod_est_250          25.00000         1.00000      i_mod_est
i_mod_est_251          16.20000         1.00000      i_mod_est
i_mod_est_252          11.60000         1.00000      i_mod_est
i_mod_est_253          8.450000         1.00000      i_mod_est
i_mod_est_254          6.670000         1.00000      i_mod_est
i_mod_est_255          5.750000         1.00000      i_mod_est
i_mod_est_256          4.640000         1.00000      i_mod_est
i_mod_est_257          4.250000         1.00000      i_mod_est
i_mod_est_258          3.890000         1.00000      i_mod_est
i_mod_est_259          3.820000         1.00000      i_mod_est
i_mod_est_260          3.290000         1.00000      i_mod_est
i_mod_est_261          2.960000         1.00000      i_mod_est
i_mod_est_262          2.680000         1.00000      i_mod_est
i_mod_est_263          2.380000         1.00000      i_mod_est
i_mod_est_264          2.410000         1.00000      i_mod_est
i_mod_est_265          2.290000         1.00000      i_mod_est
i_mod_est_266          2.160000         1.00000      i_mod_est
i_mod_est_267          2.020000         1.00000      i_mod_est
i_mod_est_268          1.900000         1.00000      i_mod_est
i_mod_est_269          1.860000         1.00000      i_mod_est
i_mod_est_270          1.940000         1.00000      i_mod_est
i_mod_est_271          1.870000         1.00000      i_mod_est
i_mod_est_272          1.810000         1.00000      i_mod_est
i_mod_est_273          1.560000         1.00000      i_mod_est
i_mod_est_274          1.640000         1.00000      i_mod_est
i_mod_est_275          1.540000         1.00000      i_mod_est
i_mod_est_276          1.490000         1.00000      i_mod_est
i_mod_est_277          1.290000         1.00000      i_mod_est
i_mod_est_278          1.430000         1.00000      i_mod_est
i_mod_est_279          1.250000         1.00000      i_mod_est
i_mod_est_280          1.200000         1.00000      i_mod_est
i_mod_est_281          1.100000         1.00000      i_mod_est
i_mod_est_282         0.7900000         1.00000      i_mod_est
i_mod_est_283         0.8800000         1.00000      i_mod_est
i_mod_est_284          1.000000         1.00000      i_mod_est
i_mod_est_285         0.9900000         1.00000      i_mod_est
i_mod_est_286         0.8100000         1.00000      i_mod_est
i_mod_est_287         0.8700000         1.00000      i_mod_est
i_mod_est_288          1.220000         1.00000      i_mod_est
i_mod_est_289          6.410000         1.00000      i_mod_est
i_mod_est_290          4.200000         1.00000      i_mod_est
i_mod_est_291          2.480000         1.00000      i_mod_est
i_mod_est_292          1.870000         1.00000      i_mod_est
i_mod_est_293          1.560000         1.00000      i_mod_est
i_mod_est_294          1.510000         1.00000      i_mod_est
i_mod_est_295          1.160000         1.00000      i_mod_est
i_mod_est_296          1.050000         1.00000      i_mod_est
i_mod_est_297         0.9900000         1.00000      i_mod_est
i_mod_est_298          1.040000         1.00000      i_mod_est
i_mod_est_299          1.470000         1.00000      i_mod_est
i_mod_est_300          14.10000         1.00000      i_mod_est
i_mod_est_301          10.90000         1.00000      i_mod_est
i_mod_est_302          5.930000         1.00000      i_mod_est
i_mod_est_303          4.230000         1.00000      i_mod_est
i_mod_est_304          3.440000         1.00000      i_mod_est
i_mod_est_305          3.190000         1.00000      i_mod_est
i_mod_est_306          2.970000         1.00000      i_mod_est
i_mod_est_307          2.480000         1.00000      i_mod_est
i_mod_est_308          2.500000         1.00000      i_mod_est
i_mod_est_309          2.510000         1.00000      i_mod_est
i_mod_est_310          2.800000         1.00000      i_mod_est
i_mod_est_311          2.520000         1.00000      i_mod_est
i_mod_est_312          2.780000         1.00000      i_mod_est
i_mod_est_313          3.250000         1.00000      i_mod_est
i_mod_est_314          3.650000         1.00000      i_mod_est
i_mod_est_315          3.210000         1.00000      i_mod_est
i_mod_est_316          2.890000         1.00000      i_mod_est
i_mod_est_317          2.910000         1.00000      i_mod_est
i_mod_est_318          3.200000         1.00000      i_mod_est
i_mod_est_319          3.360000         1.00000      i_mod_est
i_mod_est_320          3.210000         1.00000      i_mod_est
i_mod_est_321          2.930000         1.00000      i_mod_est
i_mod_est_322          2.740000         1.00000      i_mod_est
i_mod_est_323          2.410000         1.00000      i_mod_est
i_mod_est_324          2.270000         1.00000      i_mod_est
i_mod_est_325          2.140000         1.00000      i_mod_est
i_mod_est_326          1.870000         1.00000      i_mod_est
i_mod_est_327          1.950000         1.00000      i_mod_est
i_mod_est_328          1.300000         1.00000      i_mod_est
i_mod_est_329          1.690000         1.00000      i_mod_est
i_mod_est_330          1.630000         1.00000      i_mod_est
i_mod_est_331          1.590000         1.00000      i_mod_est
i_mod_est_332          1.550000         1.00000      i_mod_est
i_mod_est_333          1.580000         1.00000      i_mod_est
i_mod_est_334          1.190000         1.00000      i_mod_est
i_mod_est_335          1.350000         1.00000      i_mod_est
i_mod_est_336          1.390000         1.00000      i_mod_est
i_mod_est_337          1.200000         1.00000      i_mod_est
i_mod_est_338         0.9900000         1.00000      i_mod_est
i_mod_est_339          1.200000         1.00000      i_mod_est
i_mod_est_340          1.220000         1.00000      i_mod_est
i_mod_est_341         0.9800000         1.00000      i_mod_est
i_mod_est_342          1.030000         1.00000      i_mod_est
i_mod_est_343          1.090000         1.00000      i_mod_est
i_mod_est_344          1.050000         1.00000      i_mod_est
i_mod_est_345         0.9700000         1.00000      i_mod_est
i_mod_est_346          1.090000         1.00000      i_mod_est
i_mod_est_347          1.120000         1.00000      i_mod_est
i_mod_est_348         0.9400000         1.00000      i_mod_est
i_mod_est_349          1.010000         1.00000      i_mod_est
i_mod_est_350         0.8900000         1.00000      i_mod_est
i_mod_est_351         0.9100000         1.00000      i_mod_est
i_mod_est_352          1.060000         1.00000      i_mod_est
i_mod_est_353         0.9600000         1.00000      i_mod_est
i_mod_est_354         0.8500000         1.00000      i_mod_est
i_mod_est_355         0.8600000         1.00000      i_mod_est
i_mod_est_356         0.8600000         1.00000      i_mod_est
i_mod_est_357          1.360000         1.00000      i_mod_est
i_mod_est_358          1.820000         1.00000      i_mod_est
i_mod_est_359         0.8500000         1.00000      i_mod_est
i_mod_est_360          1.410000         1.00000      i_mod_est
i_mod_est_361         0.9800000         1.00000      i_mod_est
i_mod_est_362          1.110000         1.00000      i_mod_est
i_mod_est_363          1.840000         1.00000      i_mod_est
i_mod_est_364          1.720000         1.00000      i_mod_est
i_mod_est_365          1.430000         1.00000      i_mod_est
i_mod_est_366          1.340000         1.00000      i_mod_est
i_mod_est_367          1.270000         1.00000      i_mod_est
i_mod_est_368          1.050000         1.00000      i_mod_est
i_mod_est_369          1.130000         1.00000      i_mod_est
i_mod_est_370          1.100000         1.00000      i_mod_est
i_mod_est_371          1.120000         1.00000      i_mod_est
i_mod_est_372          1.050000         1.00000      i_mod_est
i_mod_est_373          1.120000         1.00000      i_mod_est
i_mod_est_374          1.530000         1.00000      i_mod_est
i_mod_est_375          2.440000         1.00000      i_mod_est
i_mod_est_376          1.820000         1.00000      i_mod_est
i_mod_est_377          2.170000         1.00000      i_mod_est
i_mod_est_378          1.850000         1.00000      i_mod_est
i_mod_est_379          1.620000         1.00000      i_mod_est
i_mod_est_380          16.00000         1.00000      i_mod_est
i_mod_est_381          14.40000         1.00000      i_mod_est
i_mod_est_382          7.990000         1.00000      i_mod_est
i_mod_est_383          5.570000         1.00000      i_mod_est
i_mod_est_384          4.630000         1.00000      i_mod_est
i_mod_est_385          3.770000         1.00000      i_mod_est
i_mod_est_386          3.260000         1.00000      i_mod_est
i_mod_est_387          3.030000         1.00000      i_mod_est
i_mod_est_388          2.890000         1.00000      i_mod_est
i_mod_est_389          2.490000         1.00000      i_mod_est
i_mod_est_390          2.320000         1.00000      i_mod_est
i_mod_est_391          2.180000         1.00000      i_mod_est
i_mod_est_392          2.010000         1.00000      i_mod_est
i_mod_est_393          1.880000         1.00000      i_mod_est
i_mod_est_394          1.550000         1.00000      i_mod_est
i_mod_est_395          1.450000         1.00000      i_mod_est
i_mod_est_396          1.530000         1.00000      i_mod_est
i_mod_est_397          1.440000         1.00000      i_mod_est
i_mod_est_398          1.300000         1.00000      i_mod_est
i_mod_est_399          1.450000         1.00000      i_mod_est
i_mod_est_400          1.200000         1.00000      i_mod_est
i_mod_est_401          1.270000         1.00000      i_mod_est
i_mod_est_402          1.190000         1.00000      i_mod_est
i_mod_est_403          1.700000         1.00000      i_mod_est
i_mod_est_404          5.990000         1.00000      i_mod_est
i_mod_est_405          6.920000         1.00000      i_mod_est
i_mod_est_406          5.980000         1.00000      i_mod_est
i_mod_est_407          10.50000         1.00000      i_mod_est
i_mod_est_408          8.580000         1.00000      i_mod_est
i_mod_est_409          17.10000         1.00000      i_mod_est
i_mod_est_410          38.00000         1.00000      i_mod_est
i_mod_est_411          22.00000         1.00000      i_mod_est
i_mod_est_412          23.40000         1.00000      i_mod_est
i_mod_est_413          43.50000         1.00000      i_mod_est
i_mod_est_414          55.20000         1.00000      i_mod_est
i_mod_est_415          34.20000         1.00000      i_mod_est
i_mod_est_416          21.30000         1.00000      i_mod_est
i_mod_est_417          22.90000         1.00000      i_mod_est
i_mod_est_418          91.00000         1.00000      i_mod_est
i_mod_est_419          65.10000         1.00000      i_mod_est
i_mod_est_420          37.40000         1.00000      i_mod_est
i_mod_est_421          23.80000         1.00000      i_mod_est
i_mod_est_422          16.50000         1.00000      i_mod_est
i_mod_est_423          12.90000         1.00000      i_mod_est
i_mod_est_424          13.00000         1.00000      i_mod_est
i_mod_est_425          17.20000         1.00000      i_mod_est
i_mod_est_426          15.50000         1.00000      i_mod_est
i_mod_est_427          13.90000         1.00000      i_mod_est
i_mod_est_428          13.10000         1.00000      i_mod_est
i_mod_est_429          11.30000         1.00000      i_mod_est
i_mod_est_430          9.590000         1.00000      i_mod_est
i_mod_est_431          7.870000         1.00000      i_mod_est
i_mod_est_432          6.650000         1.00000      i_mod_est
i_mod_est_433          6.000000         1.00000      i_mod_est
i_mod_est_434          5.480000         1.00000      i_mod_est
i_mod_est_435          6.170000         1.00000      i_mod_est
i_mod_est_436          5.260000         1.00000      i_mod_est
i_mod_est_437          4.650000         1.00000      i_mod_est
i_mod_est_438          38.50000         1.00000      i_mod_est
i_mod_est_439          30.30000         1.00000      i_mod_est
i_mod_est_440          20.70000         1.00000      i_mod_est
i_mod_est_441          16.00000         1.00000      i_mod_est
i_mod_est_442          12.80000         1.00000      i_mod_est
i_mod_est_443          10.30000         1.00000      i_mod_est
i_mod_est_444          8.710000         1.00000      i_mod_est
i_mod_est_445          7.100000         1.00000      i_mod_est
i_mod_est_446          7.230000         1.00000      i_mod_est
i_mod_est_447          11.10000         1.00000      i_mod_est
i_mod_est_448          29.90000         1.00000      i_mod_est